0,   100.00, 33, 0, 1, 50.00     / PSS(R)E-33.4    WED, MAY 15 2019  17:33
PICO HÁBIL DIURNO DEL VERANO 17/18 DEMANDA SADI 26100 MW

    10,'NPMADRYN    ', 500.0000,1,  21,   6,  10,1.01767,  14.1766,1.10000,0.90000,1.10000,0.90000
    11,'NPMD.CHL    ', 500.0000,1,  21,   6,  10,0.98198,  16.5847,1.10000,0.90000,1.10000,0.90000
    12,'SCN_500     ', 500.0000,1,  21,   6,  10,1.00298,  12.7410,1.10000,0.90000,1.10000,0.90000
    15,'RSCRUZ      ', 500.0000,1,  21,   6,  10,0.99649,  11.6763,1.10000,0.90000,1.10000,0.90000
    19,'ESPERANZ    ', 500.0000,1,  21,   6,  10,0.99339,  11.2392,1.10000,0.90000,1.10000,0.90000
    20,'GARACCB1    ', 525.0000,4,  20,  49,  10,1.00000,   0.0000,1.10000,0.90000,1.10000,0.90000
    22,'GARACCB2    ', 525.0000,4,  20,  49,  10,1.00000,   0.0000,1.10000,0.90000,1.10000,0.90000
    30,'ITA         ', 525.0000,4,  20,  49,  10,1.00000,   0.0000,1.10000,0.90000,1.10000,0.90000
   100,'FUTAL330    ', 330.0000,1,  21,  59,  10,1.10874,  30.5356,1.10000,0.90000,1.10000,0.90000
   102,'FUTAHI01    ',  13.8000,2,  21,  59,   6,1.00000,  36.7792,1.10000,0.90000,1.10000,0.90000
   104,'FUTAHI02    ',  13.8000,2,  21,  59,   6,1.00000,  36.7792,1.10000,0.90000,1.10000,0.90000
   106,'FUTAHI03    ',  13.8000,4,  21,  59,   6,1.00000,   0.0000,1.10000,0.90000,1.10000,0.90000
   108,'FUTAHI04    ',  13.8000,2,  21,  59,   6,1.00000,  36.7792,1.10000,0.90000,1.10000,0.90000
   110,'FUTA33-2    ',  33.0000,4,  21,  59,  10,1.00000,   0.0000,1.10000,0.90000,1.10000,0.90000
   112,'FUTA33-1    ',  33.0000,1,  21,  59,  10,1.04545,  36.7792,1.10000,0.90000,1.10000,0.90000
   115,'R.TURBIO    ', 220.0000,1,  21,  53,   1,1.02742,   9.4764,1.10000,0.90000,1.10000,0.90000
   117,'ESPERANZ    ', 220.0000,1,  21,   6,   1,1.02013,  10.0603,1.10000,0.90000,1.10000,0.90000
   118,'RGALLEGO    ', 220.0000,1,  21,  53,   1,1.01786,   8.9949,1.10000,0.90000,1.10000,0.90000
   190,'ALTG09CC    ',  10.5000,2,  21,  58,   8,0.99373,  23.4393,1.10000,0.90000,1.10000,0.90000
   191,'ALTG10CC    ',  10.5000,2,  21,  58,   8,0.99373,  23.4393,1.10000,0.90000,1.10000,0.90000
   192,'ALTV11CC    ',  10.5000,2,  21,  58,   8,0.99572,  22.3601,1.10000,0.90000,1.10000,0.90000
   193,'SERIE DT    ', 132.0000,1,  21,  58,   2,1.00000,  16.8400,1.10000,0.90000,1.10000,0.90000
   200,'PMADR330    ', 330.0000,1,  21,  51,   1,1.00276,  17.6270,1.10000,0.90000,1.10000,0.90000
   201,'AL-FIAT1    ',  13.2000,4,  21,  58,   4,1.00000,   0.0000,1.10000,0.90000,1.10000,0.90000
   202,'AL-FIAT2    ',  13.2000,4,  21,  58,   4,1.00000,   0.0000,1.10000,0.90000,1.10000,0.90000
   203,'AL-FIAT3    ',  13.2000,4,  21,  58,   4,1.00000,   0.0000,1.10000,0.90000,1.10000,0.90000
   204,'AL-FIAT4    ',  13.2000,4,  21,  58,   4,1.00000,   0.0000,1.10000,0.90000,1.10000,0.90000
   205,'AL-FRAM5    ',  11.0000,4,  21,  58,   4,1.00000,   0.0000,1.10000,0.90000,1.10000,0.90000
   206,'AL-FRAM6    ',  11.0000,4,  21,  58,   4,1.00000,   0.0000,1.10000,0.90000,1.10000,0.90000
   207,'ALCC-TG7    ',  11.0000,2,  21,  58,   8,1.01154,  19.5771,1.10000,0.90000,1.10000,0.90000
   208,'ALCC-TG8    ',  11.0000,2,  21,  58,   8,1.01154,  19.5771,1.10000,0.90000,1.10000,0.90000
   209,'ALCC-TV1    ',  11.0000,2,  21,  58,   8,1.01263,  18.7850,1.10000,0.90000,1.10000,0.90000
   210,'APPA330A    ', 330.0000,1,  21,  58,   2,1.00168,  17.5973,1.10000,0.90000,1.10000,0.90000
   211,'APPA330B    ', 330.0000,1,  21,  58,   2,1.00165,  17.6024,1.10000,0.90000,1.10000,0.90000
   212,'AL-CE0A2    ',  33.0000,1,  21,  58,   2,1.00000,  14.5988,1.10000,0.90000,1.10000,0.90000
   213,'APPA330C    ', 330.0000,1,  21,  58,   2,1.00166,  17.6024,1.10000,0.90000,1.10000,0.90000
   214,'AL-CE0B     ',  33.0000,4,  21,  58,   2,1.00000,   0.0000,1.10000,0.90000,1.10000,0.90000
   216,'AL-CE0A4    ',  33.0000,1,  21,  58,   2,1.00000,  14.5988,1.10000,0.90000,1.10000,0.90000
   217,'AL-CE0A5    ',  33.0000,1,  21,  58,   2,1.00000,  14.5988,1.10000,0.90000,1.10000,0.90000
   218,'AL-CE0A3    ',  33.0000,1,  21,  58,   2,1.00000,  14.5988,1.10000,0.90000,1.10000,0.90000
   219,'AEG         ',  13.2000,2,  21,  58,   4,1.00000,  14.5988,1.10000,0.90000,1.10000,0.90000
   220,'PMADRYN1    ', 132.0000,1,  21,  51,   1,1.04212,  18.3226,1.10000,0.90000,1.10000,0.90000
   221,'PMADRYN2    ', 132.0000,4,  21,  51,   1,1.00000,   0.0000,1.10000,0.90000,1.10000,0.90000
   222,'AL-CE0A1    ',  33.0000,1,  21,  58,   2,1.02447,  16.9236,1.10000,0.90000,1.10000,0.90000
   223,'PELB_1_3    ', 132.0000,4,  21,  51,   1,1.00000,   0.0000,1.10000,0.90000,1.10000,0.90000
   224,'NPMAD330    ', 330.0000,1,  21,  51,  10,1.00284,  17.6077,1.10000,0.90000,1.10000,0.90000
   225,'PELB_2_4    ', 132.0000,4,  21,  51,   1,1.00000,   0.0000,1.10000,0.90000,1.10000,0.90000
   226,'PELB_6      ', 132.0000,4,  21,  51,   1,1.00000,   0.0000,1.10000,0.90000,1.10000,0.90000
   227,'SERV AUX    ',  33.0000,1,  21,  58,   2,1.00000,  14.5988,1.10000,0.90000,1.10000,0.90000
   230,'DGPAL132    ', 132.0000,1,  21,  51,  10,1.03561,  18.5194,1.10000,0.90000,1.10000,0.90000
   231,'PM-GEN      ',  33.0000,1,  21,  51,  10,1.01913,  16.3913,1.10000,0.90000,1.10000,0.90000
   232,'DGPALU33    ',  33.0000,2,  21,  51,   1,1.01913,  16.3913,1.10000,0.90000,1.10000,0.90000
   234,'PM-GEN      ',  13.2000,2,  21,  51,   4,0.99915,  16.3913,1.10000,0.90000,1.10000,0.90000
   235,'DGPA13-1    ',  13.2000,1,  21,  51,  10,1.01723,  16.2163,1.10000,0.90000,1.10000,0.90000
   237,'DGPA13-2    ',  13.2000,1,  21,  51,  10,1.01723,  16.2163,1.10000,0.90000,1.10000,0.90000
   240,'TRELW132    ', 132.0000,1,  21,  51,  10,1.00054,  22.9316,1.10000,0.90000,1.10000,0.90000
   242,'TREW13.2    ',  13.2000,2,  21,  51,   1,1.00358,  18.5987,1.10000,0.90000,1.10000,0.90000
   243,'RAWSON      ', 132.0000,1,  21,  51,   1,1.00409,  24.6176,1.10000,0.90000,1.10000,0.90000
   244,'TRELEW33    ',  33.0000,1,  21,  51,   1,1.01476,  19.5197,1.10000,0.90000,1.10000,0.90000
   246,'PE_PMADR    ', 132.0000,4,  21,  51,  10,1.00000,   0.0000,1.10000,0.90000,1.10000,0.90000
   250,'AMEGH132    ', 132.0000,1,  21,  51,   1,1.03276,  23.4943,1.10000,0.90000,1.10000,0.90000
   251,'AMEGHI01    ',  13.2000,2,  21,  51,   6,1.04000,  25.7353,1.10000,0.90000,1.10000,0.90000
   252,'AMEGHI02    ',  13.2000,4,  21,  51,   6,1.00000,   0.0000,1.10000,0.90000,1.10000,0.90000
   253,'PE_ALUAR    ', 132.0000,1,  21,  58,  11,1.00169,  17.4850,1.10000,0.90000,1.10000,0.90000
   254,'ALUA33_1    ',  33.0000,1,  21,  58,  11,0.99475,  23.1667,1.10000,0.90000,1.10000,0.90000
   255,'ALUA33_2    ',  33.0000,4,  21,  58,  11,1.00000,   0.0000,1.10000,0.90000,1.10000,0.90000
   256,'ALUA33_3    ',  33.0000,1,  21,  58,  11,1.00019,  23.4505,1.10000,0.90000,1.10000,0.90000
   257,'ALUA33_4    ',  33.0000,4,  21,  58,  11,1.00000,   0.0000,1.10000,0.90000,1.10000,0.90000
   258,'PER-132     ', 132.0000,1,  21,  51,   1,1.00669,  25.5043,1.10000,0.90000,1.10000,0.90000
   259,'AL-CEB      ', 132.0000,1,  21,  58,   2,1.00000,  16.8400,1.10000,0.90000,1.10000,0.90000
   260,'TR2 FICT    ',   1.0000,1,  21,  58,   2,0.98035,  16.9236,1.10000,0.90000,1.10000,0.90000
   261,'AL-CEA      ', 132.0000,1,  21,  58,   2,1.00000,  16.8400,1.10000,0.90000,1.10000,0.90000
   262,'TR1 FICT    ',   1.0000,1,  21,  58,   2,0.98119,  16.8184,1.10000,0.90000,1.10000,0.90000
   263,'TR3 FICT    ',   1.0000,1,  21,  58,   2,0.98036,  16.9236,1.10000,0.90000,1.10000,0.90000
   264,'FUTAL132    ', 132.0000,1,  21,  59,  10,1.03588,  27.8847,1.10000,0.90000,1.10000,0.90000
   265,'AL-CEB0C    ',  33.0000,1,  21,  58,   2,1.02447,  16.9236,1.10000,0.90000,1.10000,0.90000
   266,'ESQUE132    ', 132.0000,1,  21,  59,  10,1.03024,  27.3522,1.10000,0.90000,1.10000,0.90000
   268,'SERIE AT    ', 132.0000,1,  21,  58,   2,1.00000,  16.8400,1.10000,0.90000,1.10000,0.90000
   269,'SERIE BT    ', 132.0000,1,  21,  58,   2,1.00000,  16.8400,1.10000,0.90000,1.10000,0.90000
   271,'ELCOIHUE    ', 132.0000,1,  21,  59,   1,1.01582,  26.2924,1.10000,0.90000,1.10000,0.90000
   275,'LB_EOL      ', 132.0000,1,  21,  51,   1,1.04673,  20.8328,1.10000,0.90000,1.10000,0.90000
   280,'GOLONDRI    ',  13.2000,1,  21,  59,  10,0.98443,  19.3315,1.10000,0.90000,1.10000,0.90000
   281,'LIMRN-CH    ',  13.2000,1,  21,  59,  10,0.91348,  19.1572,1.10000,0.90000,1.10000,0.90000
   282,'ELBOLSON    ',  13.2000,1,  21,  59,   1,0.86058,  19.0085,1.10000,0.90000,1.10000,0.90000
   300,'SGRAN132    ', 132.0000,1,  21,  51,   1,1.01440,  14.2085,1.10000,0.90000,1.10000,0.90000
   304,'SGRA13.2    ',  13.2000,4,  21,  51,   4,1.00000,   0.0000,1.10000,0.90000,1.10000,0.90000
   310,'PCOLO132    ', 132.0000,1,  21,  51,  10,1.01228,  14.0284,1.10000,0.90000,1.10000,0.90000
   315,'RSCRUZ      ', 132.0000,1,  21,  53,   1,1.02285,  11.4136,1.10000,0.90000,1.10000,0.90000
   316,'S.JULIAN    ', 132.0000,4,  21,  53,   1,1.00000,   0.0000,1.10000,0.90000,1.10000,0.90000
   317,'M.ESPEJO    ', 132.0000,4,  21,  53,   1,1.00000,   0.0000,1.10000,0.90000,1.10000,0.90000
   318,'GREGORES    ', 132.0000,4,  21,  53,   1,1.00000,   0.0000,1.10000,0.90000,1.10000,0.90000
   320,'SANOE132    ', 132.0000,1,  21,  51,   1,0.98664,  11.5421,1.10000,0.90000,1.10000,0.90000
   322,'SANES132    ', 132.0000,1,  21,  51,   1,0.98234,  11.2468,1.10000,0.90000,1.10000,0.90000
   330,'VIEDM132    ', 132.0000,1,  21,  51,   1,0.87917, -14.2865,1.10000,0.90000,1.10000,0.90000
   332,'VIED13.2    ',  13.2000,1,  21,  51,   1,0.99478, -18.7481,1.10000,0.90000,1.10000,0.90000
   334,'VIEDMA33    ',  33.0000,1,  21,  51,  10,1.00041, -17.1799,1.10000,0.90000,1.10000,0.90000
   340,'ALPAT       ', 132.0000,1,  21,  51,   1,0.98675,  11.5389,1.10000,0.90000,1.10000,0.90000
   342,'ALPAT       ',  10.5000,2,  21,  51,   1,0.98675,  11.5389,1.10000,0.90000,1.10000,0.90000
   344,'ALPAT       ',   6.6000,2,  21,  51,   1,0.98675,  11.5389,1.10000,0.90000,1.10000,0.90000
   400,'C.RIV.A1    ', 132.0000,1,  21,  52,  10,1.00904,  21.4674,1.10000,0.90000,1.10000,0.90000
   401,'C.RIV.A     ', 132.0000,1,  21,  52,  10,1.00894,  21.4603,1.10000,0.90000,1.10000,0.90000
   402,'3GAL        ', 132.0000,1,  21,  51,  10,1.03772,  22.7827,1.10000,0.90000,1.10000,0.90000
   403,'HERCULES    ', 132.0000,1,  21,  52,  10,1.01307,  12.6803,1.10000,0.90000,1.10000,0.90000
   404,'ESCALANT    ', 132.0000,1,  21,  52,  10,1.00799,  23.4259,1.10000,0.90000,1.10000,0.90000
   405,'PE_MBEHR    ', 132.0000,1,  21,  52,  10,1.01003,  25.1388,1.10000,0.90000,1.10000,0.90000
   406,'CRI22-26    ',  13.2000,2,  21,  52,   4,1.00894,  21.4603,1.10000,0.90000,1.10000,0.90000
   407,'3GAL_33     ',  33.0000,4,  21,  51,  10,1.00000,   0.0000,1.10000,0.90000,1.10000,0.90000
   408,'C.RIV.A1    ',  10.4000,1,  21,  52,   1,0.97658,  18.0654,1.10000,0.90000,1.10000,0.90000
   409,'CRI 21      ',  10.4000,2,  21,  52,   4,0.97658,  18.0654,1.10000,0.90000,1.10000,0.90000
   410,'C.RIV.A1    ',  66.0000,2,  21,  52,   1,1.00130,  20.4490,1.10000,0.90000,1.10000,0.90000
   411,'BICE13_1    ',  13.2000,4,  21,  51,  10,1.00000,   0.0000,1.10000,0.90000,1.10000,0.90000
   412,'BICE13_2    ',  13.2000,4,  21,  51,  10,1.00000,   0.0000,1.10000,0.90000,1.10000,0.90000
   413,'BICE33_1    ',  33.0000,4,  21,  51,  10,1.00000,   0.0000,1.10000,0.90000,1.10000,0.90000
   414,'BICE33_2    ',  33.0000,4,  21,  51,  10,1.00000,   0.0000,1.10000,0.90000,1.10000,0.90000
   420,'C.RIV.A1    ',  33.0000,2,  21,  52,   1,1.02202,  18.5600,1.10000,0.90000,1.10000,0.90000
   422,'CRI 23      ',  13.8000,2,  21,  52,   4,0.97603,  17.9158,1.10000,0.90000,1.10000,0.90000
   437,'CRI27-28    ',  13.8000,2,  21,  52,   8,1.00894,  21.4603,1.10000,0.90000,1.10000,0.90000
   438,'CRIVTV25    ',  13.8000,2,  21,  52,   8,1.00894,  21.4603,1.10000,0.90000,1.10000,0.90000
   440,'VHERM132    ', 132.0000,2,  21,  52,   1,0.99004,  22.2738,1.10000,0.90000,1.10000,0.90000
   441,'SAN JOSE    ', 132.0000,1,  21,  52,   1,0.96883,  10.6523,1.10000,0.90000,1.10000,0.90000
   442,'CNEGR132    ', 132.0000,2,  21,  52,   1,0.98295,  21.9605,1.10000,0.90000,1.10000,0.90000
   444,'PAMCA132    ', 132.0000,2,  21,  52,   1,0.99770,  22.7018,1.10000,0.90000,1.10000,0.90000
   445,'TORDI132    ', 132.0000,2,  21,  52,   1,0.99605,  22.6390,1.10000,0.90000,1.10000,0.90000
   446,'LPER1132    ', 132.0000,1,  21,  52,   1,1.02742,  15.9035,1.10000,0.90000,1.10000,0.90000
   447,'LPER2132    ', 132.0000,4,  21,  52,   1,1.00000,   0.0000,1.10000,0.90000,1.10000,0.90000
   448,'LASHE132    ', 132.0000,2,  21,  52,   1,0.99575,  12.7451,1.10000,0.90000,1.10000,0.90000
   449,'DIADEMA     ', 132.0000,1,  21,  52,   1,1.01090,  23.0582,1.10000,0.90000,1.10000,0.90000
   450,'BSM132R     ', 132.0000,2,  21,  52,   1,1.01409,  21.9085,1.10000,0.90000,1.10000,0.90000
   451,'DIADEMA     ',  34.5000,1,  21,  52,   1,1.01699,  23.5910,1.10000,0.90000,1.10000,0.90000
   452,'BSMA13.2    ',  13.2000,1,  21,  52,   1,0.99212,  15.4816,1.10000,0.90000,1.10000,0.90000
   453,'DIADEMA     ',   0.4000,2,  21,  52,  11,1.03000,  24.7628,1.10000,0.90000,1.10000,0.90000
   454,'BSMART33    ',  33.0000,1,  21,  52,   1,1.01161,  17.5479,1.10000,0.90000,1.10000,0.90000
   455,'AIKE        ', 132.0000,1,  21,  52,   1,0.97469,  11.2535,1.10000,0.90000,1.10000,0.90000
   456,'ABASOLO     ', 132.0000,1,  21,  52,   1,1.01556,  22.3066,1.10000,0.90000,1.10000,0.90000
   457,'OROPLATA    ', 132.0000,1,  21,  52,   1,0.95448,  10.0613,1.10000,0.90000,1.10000,0.90000
   459,'PT1-132R    ', 132.0000,2,  21,  52,   1,1.02494,  12.6697,1.10000,0.90000,1.10000,0.90000
   460,'PT1-132M    ', 132.0000,1,  21,  52,   1,1.02494,  12.6697,1.10000,0.90000,1.10000,0.90000
   461,'SCN_132     ', 132.0000,1,  21,  52,  10,1.02557,  12.6558,1.10000,0.90000,1.10000,0.90000
   462,'PTRUN235    ',  35.0000,1,  21,  52,   1,1.01076,  12.1563,1.10000,0.90000,1.10000,0.90000
   463,'PTRUN35R    ',  35.0000,2,  21,  52,   1,1.01076,  12.1563,1.10000,0.90000,1.10000,0.90000
   464,'PTRUTG24    ',  13.8000,2,  21,  52,   4,0.97177,  12.1423,1.10000,0.90000,1.10000,0.90000
   466,'PTRUTG25    ',  10.5000,2,  21,  52,   4,0.97169,  12.1321,1.10000,0.90000,1.10000,0.90000
   467,'PCR         ', 132.0000,1,  21,  52,   1,1.02499,  12.6445,1.10000,0.90000,1.10000,0.90000
   468,'PTRUTG23    ',  10.5000,2,  21,  52,   4,1.01076,  12.1563,1.10000,0.90000,1.10000,0.90000
   470,'PT2--132    ', 132.0000,1,  21,  52,  10,1.02463,  12.6472,1.10000,0.90000,1.10000,0.90000
   472,'PT2-6.9     ',  35.0000,1,  21,  52,   1,1.01883,  11.9803,1.10000,0.90000,1.10000,0.90000
   474,'ELCORDON    ',  35.0000,4,  21,  52,   1,1.00000,   0.0000,1.10000,0.90000,1.10000,0.90000
   475,'HUEMUL      ',  35.0000,4,  21,  52,   1,1.00000,   0.0000,1.10000,0.90000,1.10000,0.90000
   476,'CT.HUEMUL   ',   0.4000,4,  21,  52,   1,1.00000,   0.0000,1.10000,0.90000,1.10000,0.90000
   477,'MESESPI     ',  35.0000,4,  21,  52,   1,1.00000,   0.0000,1.10000,0.90000,1.10000,0.90000
   478,'CTMESESP    ',   0.4000,4,  21,  52,   4,1.00000,   0.0000,1.10000,0.90000,1.10000,0.90000
   479,'SCN_TER1    ',  33.0000,1,  21,   6,  10,1.02912,  12.6634,1.10000,0.90000,1.10000,0.90000
   480,'PDES132M    ', 132.0000,1,  21,  52,   1,1.03126,  11.2982,1.10000,0.90000,1.10000,0.90000
   481,'PDES132R    ', 132.0000,4,  21,  52,   1,1.00000,   0.0000,1.10000,0.90000,1.10000,0.90000
   482,'C.MORO      ', 132.0000,4,  21,  52,   1,1.00000,   0.0000,1.10000,0.90000,1.10000,0.90000
   483,'PS.A.BIEDMA ', 132.0000,1,  21,  52,   1,1.03401,  11.5238,1.10000,0.90000,1.10000,0.90000
   484,'SCN_TER2    ',  33.0000,4,  21,   6,  10,1.00000,   0.0000,1.10000,0.90000,1.10000,0.90000
   490,'CTPAT132    ', 132.0000,1,  21,  52,  10,1.01552,  22.3073,1.10000,0.90000,1.10000,0.90000
   491,'CTPATG01    ',  11.5000,2,  21,  52,   8,1.03000,  26.0007,1.10000,0.90000,1.10000,0.90000
   492,'CTPATG02    ',  11.5000,2,  21,  52,   8,1.03000,  26.0007,1.10000,0.90000,1.10000,0.90000
   493,'CTPATV01    ',  11.5000,2,  21,  52,   8,1.03000,  24.6796,1.10000,0.90000,1.10000,0.90000
   494,'CHUBUNOR    ', 132.0000,2,  21,  51,   1,1.04227,  18.3187,1.10000,0.90000,1.10000,0.90000
   495,'PEBICENT    ', 132.0000,1,  21,  52,   1,1.03390,  11.8569,1.10000,0.90000,1.10000,0.90000
   500,'HERC33_1    ',  33.0000,4,  21,   6,  11,1.00000,   0.0000,1.10000,0.90000,1.10000,0.90000
   501,'PMD.TER1    ',  33.0000,1,  21,   6,  10,1.00050,  17.9654,1.10000,0.90000,1.10000,0.90000
   502,'HERC33_2    ',  33.0000,4,  21,   6,  11,1.00000,   0.0000,1.10000,0.90000,1.10000,0.90000
   503,'HERC13_1    ',  13.2000,4,  21,   6,   1,1.00000,   0.0000,1.10000,0.90000,1.10000,0.90000
   504,'RSCRUZ      ',  33.0000,1,  21,   6,   1,1.02274,  11.3856,1.10000,0.90000,1.10000,0.90000
   505,'HERC13_2    ',  13.2000,4,  21,   6,   1,1.00000,   0.0000,1.10000,0.90000,1.10000,0.90000
   509,'PMD4.TER    ',  33.0000,4,  21,   6,  10,1.00000,   0.0000,1.10000,0.90000,1.10000,0.90000
   510,'PMD1.TER    ',  34.5000,1,  21,  51,  10,1.04563,  18.2212,1.10000,0.90000,1.10000,0.90000
   511,'PMD2.TER    ',  34.5000,1,  21,  51,  10,1.04519,  18.2339,1.10000,0.90000,1.10000,0.90000
   514,'CRITER10    ',  13.8000,1,  21,  52,  10,0.99850,  20.2847,1.10000,0.90000,1.10000,0.90000
   515,'CRITER11    ',  13.8000,1,  21,  52,  10,1.00050,  20.3401,1.10000,0.90000,1.10000,0.90000
   516,'ESQ1.TER    ',  13.8000,1,  21,  59,  10,0.99839,  23.7317,1.10000,0.90000,1.10000,0.90000
   518,'FUT1.TER    ',  34.5000,1,  21,  59,  10,1.03530,  27.5883,1.10000,0.90000,1.10000,0.90000
   520,'ESQUEL33    ',  33.0000,1,  21,  59,   1,1.04475,  23.8497,1.10000,0.90000,1.10000,0.90000
   522,'ELCOIHUE    ',  33.0000,1,  21,  59,   1,0.98614,  23.1720,1.10000,0.90000,1.10000,0.90000
   523,'RTURTV1     ',  11.0000,4,  21,  53,   5,1.00000,   0.0000,1.10000,0.90000,1.10000,0.90000
   524,'GOLONDRI    ',  33.0000,1,  21,  59,   1,0.95288,  21.4310,1.10000,0.90000,1.10000,0.90000
   525,'RTURTV2     ',  11.0000,4,  21,  53,   5,1.00000,   0.0000,1.10000,0.90000,1.10000,0.90000
   526,'CHNO33_1    ',  33.0000,4,  21,  51,  10,1.00000,   0.0000,1.10000,0.90000,1.10000,0.90000
   532,'PEM33_01    ',  33.0000,4,  21,  51,  11,1.00000,   0.0000,1.10000,0.90000,1.10000,0.90000
   533,'PEM33_02    ',  33.0000,4,  21,  51,  11,1.00000,   0.0000,1.10000,0.90000,1.10000,0.90000
   534,'PEM33_03    ',  33.0000,4,  21,  51,  11,1.00000,   0.0000,1.10000,0.90000,1.10000,0.90000
   535,'PEM33_04    ',  33.0000,4,  21,  51,  11,1.00000,   0.0000,1.10000,0.90000,1.10000,0.90000
   536,'PEM33_05    ',  33.0000,4,  21,  51,  11,1.00000,   0.0000,1.10000,0.90000,1.10000,0.90000
   537,'PEM33_06    ',  33.0000,4,  21,  51,  11,1.00000,   0.0000,1.10000,0.90000,1.10000,0.90000
   538,'PEM33_07    ',  33.0000,4,  21,  51,  11,1.00000,   0.0000,1.10000,0.90000,1.10000,0.90000
   539,'PEM33_08    ',  33.0000,4,  21,  51,  11,1.00000,   0.0000,1.10000,0.90000,1.10000,0.90000
   540,'PEM33_09    ',  33.0000,4,  21,  51,  11,1.00000,   0.0000,1.10000,0.90000,1.10000,0.90000
   541,'PEM33_10    ',  33.0000,4,  21,  51,  11,1.00000,   0.0000,1.10000,0.90000,1.10000,0.90000
   542,'PMD3.TER    ',  33.0000,4,  21,  51,  11,1.00000,   0.0000,1.10000,0.90000,1.10000,0.90000
   545,'ESP.TER1    ',  33.0000,1,  21,   6,   1,1.00850,   9.9650,1.10000,0.90000,1.10000,0.90000
   546,'ESP.TER2    ',  33.0000,1,  21,   6,   1,1.07217,   9.3837,1.10000,0.90000,1.10000,0.90000
   547,'RGALLEGO    ',  33.0000,4,  21,  53,   1,1.00000,   0.0000,1.10000,0.90000,1.10000,0.90000
   548,'RGA.TER1    ',  13.2000,4,  21,  53,   1,1.00000,   0.0000,1.10000,0.90000,1.10000,0.90000
   556,'LB_EOL_04   ',  33.0000,1,  21,  51,   1,1.03748,  26.0953,1.10000,0.90000,1.10000,0.90000
   557,'LB_EOL_04   ',  33.0000,1,  21,  51,   1,1.04116,  26.6222,1.10000,0.90000,1.10000,0.90000
   560,'PELB33_1    ',  33.0000,4,  21,  51,  11,1.00000,   0.0000,1.10000,0.90000,1.10000,0.90000
   561,'PELB33_2    ',  33.0000,4,  21,  51,  11,1.00000,   0.0000,1.10000,0.90000,1.10000,0.90000
   562,'PELB33_3    ',  33.0000,4,  21,  51,  11,1.00000,   0.0000,1.10000,0.90000,1.10000,0.90000
   563,'PELB33_4    ',  33.0000,4,  21,  51,  11,1.00000,   0.0000,1.10000,0.90000,1.10000,0.90000
   564,'PELB33_5    ',  33.0000,4,  21,  51,  11,1.00000,   0.0000,1.10000,0.90000,1.10000,0.90000
   565,'PELB33_6    ',  33.0000,4,  21,  51,  11,1.00000,   0.0000,1.10000,0.90000,1.10000,0.90000
   566,'PELB33_7    ',  33.0000,4,  21,  51,  11,1.00000,   0.0000,1.10000,0.90000,1.10000,0.90000
   567,'PELB33_8    ',  33.0000,4,  21,  51,  11,1.00000,   0.0000,1.10000,0.90000,1.10000,0.90000
   568,'LB6_33_1    ',  33.0000,4,  21,  51,  11,1.00000,   0.0000,1.10000,0.90000,1.10000,0.90000
   569,'LB6_33_2    ',  33.0000,4,  21,  51,  11,1.00000,   0.0000,1.10000,0.90000,1.10000,0.90000
   570,'PER-33      ',  33.0000,1,  21,  51,  10,0.95067,  31.2509,1.10000,0.90000,1.10000,0.90000
   571,'PER-33      ',  33.0000,1,  21,  51,  10,0.95504,  31.5242,1.10000,0.90000,1.10000,0.90000
   572,'LB6_33_3    ',  33.0000,4,  21,  51,  11,1.00000,   0.0000,1.10000,0.90000,1.10000,0.90000
   573,'LB6_33_4    ',  33.0000,4,  21,  51,  11,1.00000,   0.0000,1.10000,0.90000,1.10000,0.90000
   574,'KOSTENPE    ',  33.0000,4,  21,  51,  11,1.00000,   0.0000,1.10000,0.90000,1.10000,0.90000
   575,'KOS.TER1    ',  13.2000,4,  21,  51,  11,1.00000,   0.0000,1.10000,0.90000,1.10000,0.90000
   576,'KOS.TER2    ',  13.2000,4,  21,  51,  11,1.00000,   0.0000,1.10000,0.90000,1.10000,0.90000
   577,'KOSTPE01    ',  33.0000,4,  21,  51,  11,1.00000,   0.0000,1.10000,0.90000,1.10000,0.90000
   578,'BEHR33_1    ',  33.0000,1,  21,  52,  11,1.01210,  30.0772,1.10000,0.90000,1.10000,0.90000
   600,'CTPATG38    ',  11.5000,4,  21,  52,   4,1.00000,   0.0000,1.10000,0.90000,1.10000,0.90000
   650,'GARAEO01    ',   0.6900,4,  21,  51,  11,1.00000,   0.0000,1.10000,0.90000,1.10000,0.90000
   651,'CHNOEO01    ',   0.7000,4,  21,  51,  11,1.00000,   0.0000,1.10000,0.90000,1.10000,0.90000
   652,'LHEREO01    ',   0.6900,4,  21,  51,  11,1.00000,   0.0000,1.10000,0.90000,1.10000,0.90000
   653,'LHEREO02    ',   0.6900,4,  21,  51,  11,1.00000,   0.0000,1.10000,0.90000,1.10000,0.90000
   654,'BICEEO01    ',   0.6900,4,  21,  51,  11,1.00000,   0.0000,1.10000,0.90000,1.10000,0.90000
   655,'BICEEO02    ',   0.6900,4,  21,  51,  11,1.00000,   0.0000,1.10000,0.90000,1.10000,0.90000
   656,'ALUAEO01    ',   0.6900,2,  21,  58,  11,1.00000,  26.5946,1.10000,0.90000,1.10000,0.90000
   657,'ALUAEO02    ',   0.6900,4,  21,  58,  11,1.00000,   0.0000,1.10000,0.90000,1.10000,0.90000
   661,'LPERTG01    ',  11.0000,2,  21,  52,   4,1.05000,  20.6251,1.10000,0.90000,1.10000,0.90000
   662,'LPERTG02    ',  11.0000,2,  21,  52,   4,1.05000,  20.6251,1.10000,0.90000,1.10000,0.90000
   670,'RCHTG157    ',  10.5000,4,  21,  53,   4,1.00000,   0.0000,1.10000,0.90000,1.10000,0.90000
   671,'RCHTG158    ',  10.5000,4,  21,  53,   4,1.00000,   0.0000,1.10000,0.90000,1.10000,0.90000
   673,'RCHICOG3    ',  13.2000,4,  21,  53,   4,1.00000,   0.0000,1.10000,0.90000,1.10000,0.90000
   674,'RCHICOG4    ',  13.2000,4,  21,  53,   4,1.00000,   0.0000,1.10000,0.90000,1.10000,0.90000
   675,'RAW_EOL     ',   0.6900,2,  21,  51,  11,0.99407,  35.4788,1.10000,0.90000,1.10000,0.90000
   676,'RAW_EO02    ',   0.6900,2,  21,  51,  11,0.97799,  36.2405,1.10000,0.90000,1.10000,0.90000
   678,'LB_EOL_04   ',   0.6900,2,  21,  51,  11,1.04004,  29.2802,1.10000,0.90000,1.10000,0.90000
   679,'PEM_1       ',   0.6000,4,  21,  51,  11,1.00000,   0.0000,1.10000,0.90000,1.10000,0.90000
   680,'PEM_OEST    ',   0.6000,4,  21,  51,  11,1.00000,   0.0000,1.10000,0.90000,1.10000,0.90000
   681,'PEM_2       ',   0.6000,4,  21,  51,  11,1.00000,   0.0000,1.10000,0.90000,1.10000,0.90000
   682,'PEM_NORT    ',   0.6000,4,  21,  51,  11,1.00000,   0.0000,1.10000,0.90000,1.10000,0.90000
   683,'PEM_SUR     ',   0.6000,4,  21,  51,  11,1.00000,   0.0000,1.10000,0.90000,1.10000,0.90000
   684,'LBLAEO01    ',   0.6000,4,  21,  51,  11,1.00000,   0.0000,1.10000,0.90000,1.10000,0.90000
   685,'LBLAEO03    ',   0.6000,4,  21,  51,  11,1.00000,   0.0000,1.10000,0.90000,1.10000,0.90000
   686,'LBLAEO02    ',   0.6000,4,  21,  51,  11,1.00000,   0.0000,1.10000,0.90000,1.10000,0.90000
   687,'LBLAEO04    ',   0.6000,4,  21,  51,  11,1.00000,   0.0000,1.10000,0.90000,1.10000,0.90000
   688,'LBEO6_01    ',   0.6900,4,  21,  51,  11,1.00000,   0.0000,1.10000,0.90000,1.10000,0.90000
   689,'LBEO6_02    ',   0.6900,4,  21,  51,  11,1.00000,   0.0000,1.10000,0.90000,1.10000,0.90000
   690,'KOSTEO01    ',   0.7000,4,  21,  51,  11,1.00000,   0.0000,1.10000,0.90000,1.10000,0.90000
   691,'BEHREO01    ',   0.7000,2,  21,  52,  11,1.02000,  34.3437,1.10000,0.90000,1.10000,0.90000
   692,'BEHREO02    ',   0.7000,2,  21,  52,  11,1.02000,  34.3437,1.10000,0.90000,1.10000,0.90000
   720,'ESPERANZ    ', 132.0000,1,  21,  53,   1,1.03948,   9.4477,1.10000,0.90000,1.10000,0.90000
   721,'CALAFATE    ', 132.0000,1,  21,  53,   1,1.02762,   7.5279,1.10000,0.90000,1.10000,0.90000
   914,'CRINEU10    ',   1.0000,1,  21,  52,  10,0.99850,  20.2847,1.10000,0.90000,1.10000,0.90000
   915,'CRINEU11    ',   1.0000,1,  21,  52,  10,1.00050,  20.3401,1.10000,0.90000,1.10000,0.90000
   916,'ESQ1.NEU    ',   1.0000,1,  21,  59,  10,0.99839,  23.7317,1.10000,0.90000,1.10000,0.90000
   923,'DGP.NEU1    ',   1.0000,1,  21,  51,  10,0.97301,  16.2163,1.10000,0.90000,1.10000,0.90000
   924,'DGP.NEU2    ',   1.0000,1,  21,  51,  10,0.97301,  16.2163,1.10000,0.90000,1.10000,0.90000
   950,'BSM.NEU1    ',   1.0000,1,  21,  52,  10,1.01365,  17.5344,1.10000,0.90000,1.10000,0.90000
   951,'BSM.NEU2    ',   1.0000,1,  21,  52,  10,1.01324,  17.5173,1.10000,0.90000,1.10000,0.90000
   960,'TRW.NEU1    ',   1.0000,1,  21,  51,  10,0.96683,  19.3274,1.10000,0.90000,1.10000,0.90000
   961,'TRW.NEU2    ',   1.0000,1,  21,  51,  10,0.96724,  19.3502,1.10000,0.90000,1.10000,0.90000
   962,'TRW.NEU3    ',   1.0000,1,  21,  51,  10,1.06431,  19.3853,1.10000,0.90000,1.10000,0.90000
   965,'CRI.NEU1    ',   1.0000,1,  21,  52,  10,0.97623,  18.4216,1.10000,0.90000,1.10000,0.90000
   966,'CRI.NEU5    ',   1.0000,1,  21,  52,  10,0.97644,  18.4438,1.10000,0.90000,1.10000,0.90000
   967,'CRI.NEU5    ',   1.0000,1,  21,  52,  10,0.97710,  18.4514,1.10000,0.90000,1.10000,0.90000
  1000,'CHOCON      ', 500.0000,1,   7,   2,  10,1.02191,  17.6283,1.10000,0.90000,1.10000,0.90000
  1002,'P.AGUILA    ', 500.0000,1,   7,   2,  10,1.01358,  23.0677,1.10000,0.90000,1.10000,0.90000
  1004,'CHOCONOE    ', 500.0000,1,   7,   2,  10,1.02217,  17.6349,1.10000,0.90000,1.10000,0.90000
  1006,'CHOE.CH     ', 500.0000,1,   7,   2,  10,1.02778,   6.5739,1.10000,0.90000,1.10000,0.90000
  1007,'CHOE.PA     ', 500.0000,1,   7,   2,  10,1.04223,   6.6083,1.10000,0.90000,1.10000,0.90000
  1008,'CH.CHOEL    ', 500.0000,1,   7,   2,  10,1.00897,  12.9755,1.10000,0.90000,1.10000,0.90000
  1010,'CHOE.BB1    ', 500.0000,1,   7,   2,  10,0.99864,  21.7719,1.10000,0.90000,1.10000,0.90000
  1011,'CHOE.BB2    ', 500.0000,1,   7,   2,  10,0.99003,  18.9499,1.10000,0.90000,1.10000,0.90000
  1012,'C.COSTA     ', 500.0000,1,   7,   2,  10,1.02079,  14.1846,1.10000,0.90000,1.10000,0.90000
  1014,'T.AGUI1     ', 500.0000,1,   7,   2,  10,1.01390,  22.8777,1.10000,0.90000,1.10000,0.90000
  1016,'ALICURA     ', 500.0000,1,   7,   2,  10,1.00312,  24.4825,1.10000,0.90000,1.10000,0.90000
  1018,'C.H.CHOC    ', 500.0000,1,   7,   2,  10,1.02190,  17.6585,1.10000,0.90000,1.10000,0.90000
  1020,'L.LATA      ', 500.0000,1,   7,   2,  10,1.01827,  15.8255,1.10000,0.90000,1.10000,0.90000
  1022,'PPLEUFU     ', 500.0000,1,   7,   2,  10,1.01382,  23.0335,1.10000,0.90000,1.10000,0.90000
  1024,'P.BAND.     ', 500.0000,1,   7,   2,  10,1.01951,  15.1296,1.10000,0.90000,1.10000,0.90000
  1025,'A.CAJON     ', 500.0000,1,   7,   2,  10,1.02697,  16.8775,1.10000,0.90000,1.10000,0.90000
  1026,'PUELCHE1    ', 500.0000,1,   7,   2,  10,1.00973,   2.3316,1.10000,0.90000,1.10000,0.90000
  1028,'PUELCHE2    ', 500.0000,1,   7,   2,  10,1.00974,  13.7448,1.10000,0.90000,1.10000,0.90000
  1030,'MACACHIN    ', 500.0000,1,   7,   2,  10,1.00686,   1.3117,1.10000,0.90000,1.10000,0.90000
  1200,'ACAJON 1    ', 132.0000,1,   7,  27,  10,1.00972,  22.6811,1.10000,0.90000,1.10000,0.90000
  1202,'ACAJON 2    ', 132.0000,1,   7,  27,  10,1.01984,  18.8416,1.10000,0.90000,1.10000,0.90000
  1203,'ACAJON 3    ', 132.0000,1,   7,  27,  10,1.02168,  23.9255,1.10000,0.90000,1.10000,0.90000
  1204,'ALICURA     ', 132.0000,1,   7,  27,  10,1.04618,  20.6471,1.10000,0.90000,1.10000,0.90000
  1206,'A.VALLE     ', 132.0000,1,   7,  26,   1,1.00716,  16.1963,1.10000,0.90000,1.10000,0.90000
  1208,'ARROYITO    ', 132.0000,1,   7,  26,   1,1.01483,  18.0472,1.10000,0.90000,1.10000,0.90000
  1210,'BARILOCH    ', 132.0000,1,   7,  26,   1,0.96174,  15.0601,1.10000,0.90000,1.10000,0.90000
  1211,'BARILOCH    ',  13.2000,1,   7,  26,   1,0.96174,  15.0601,1.10000,0.90000,1.10000,0.90000
  1212,'T. ROCA     ', 132.0000,1,   7,  26,  10,1.00498,  14.2141,1.10000,0.90000,1.10000,0.90000
  1213,'L.NEGRA     ', 132.0000,1,   7,  26,   2,1.00215,  14.0170,1.10000,0.90000,1.10000,0.90000
  1214,'CASAPIED    ', 132.0000,1,   7,  25,  10,1.03590,  23.2137,1.10000,0.90000,1.10000,0.90000
  1215,'R.NEUQUE    ', 132.0000,1,   7,  27,   1,0.99715,  16.1812,1.10000,0.90000,1.10000,0.90000
  1216,'CENTENAR    ', 132.0000,1,   7,  27,  10,0.99514,  16.0351,1.10000,0.90000,1.10000,0.90000
  1217,'R.NEUQ T    ', 132.0000,1,   7,  27,  10,0.99716,  16.1816,1.10000,0.90000,1.10000,0.90000